Version 4
SHEET 1 2796 1312
WIRE 1024 16 992 16
WIRE 1136 16 1136 -48
WIRE 1136 16 1104 16
WIRE 1360 16 1328 16
WIRE 1456 16 1456 -32
WIRE 1456 16 1440 16
WIRE 1664 48 1664 32
WIRE 1744 48 1664 48
WIRE 1136 64 1136 16
WIRE 1456 64 1456 16
WIRE 1664 80 1664 48
WIRE 992 112 992 16
WIRE 1072 112 992 112
WIRE 1328 112 1328 16
WIRE 1392 112 1328 112
WIRE 560 192 512 192
WIRE 688 192 624 192
WIRE 1136 192 1136 160
WIRE 1456 192 1456 160
WIRE 1664 208 1664 160
WIRE 512 304 512 192
WIRE 512 304 464 304
WIRE 560 304 512 304
WIRE 688 304 688 192
WIRE 688 304 640 304
WIRE 736 304 688 304
WIRE 464 384 464 304
WIRE 512 384 464 384
WIRE 736 400 736 304
WIRE 736 400 576 400
WIRE 784 400 736 400
WIRE 816 400 784 400
WIRE 1136 400 896 400
WIRE 1248 400 1136 400
WIRE 1408 400 1328 400
WIRE 256 416 80 416
WIRE 336 416 256 416
WIRE 512 416 336 416
WIRE 336 432 336 416
WIRE 2336 432 2000 432
WIRE 2656 432 2400 432
WIRE 1552 544 1472 544
WIRE 1728 544 1632 544
WIRE 1776 544 1728 544
WIRE 1936 544 1776 544
WIRE 2048 544 1936 544
WIRE 2208 544 2128 544
WIRE 2384 544 2288 544
WIRE 2464 544 2384 544
WIRE 2576 544 2544 544
WIRE 1136 592 1136 400
WIRE 1184 592 1136 592
WIRE 1408 592 1408 400
WIRE 1408 592 1344 592
WIRE 1472 592 1472 544
WIRE 1472 592 1408 592
WIRE 2000 592 2000 432
WIRE 2064 592 2000 592
WIRE 2112 608 2112 592
WIRE 1056 624 1056 608
WIRE 1184 624 1056 624
WIRE 560 640 512 640
WIRE 688 640 624 640
WIRE 2000 640 2000 592
WIRE 2480 640 2480 592
WIRE 2656 640 2656 432
WIRE 2656 640 2480 640
WIRE 1184 656 1136 656
WIRE 1408 656 1344 656
WIRE 1472 656 1408 656
WIRE 1472 704 1472 656
WIRE 1552 704 1472 704
WIRE 1728 704 1632 704
WIRE 1776 704 1728 704
WIRE 1936 704 1776 704
WIRE 2048 704 1936 704
WIRE 2208 704 2128 704
WIRE 2384 704 2288 704
WIRE 2464 704 2384 704
WIRE 2576 704 2576 544
WIRE 2576 704 2544 704
WIRE 512 752 512 640
WIRE 512 752 464 752
WIRE 560 752 512 752
WIRE 688 752 688 640
WIRE 688 752 640 752
WIRE 736 752 688 752
WIRE 2000 752 2000 640
WIRE 2064 752 2000 752
WIRE 2112 768 2112 752
WIRE 2000 800 2000 752
WIRE 2480 816 2480 752
WIRE 2656 816 2656 640
WIRE 2656 816 2480 816
WIRE 464 832 464 752
WIRE 512 832 464 832
WIRE 736 848 736 752
WIRE 736 848 576 848
WIRE 784 848 736 848
WIRE 816 848 784 848
WIRE 1136 848 1136 656
WIRE 1136 848 896 848
WIRE 1200 848 1136 848
WIRE 1408 848 1408 656
WIRE 1408 848 1280 848
WIRE 256 864 96 864
WIRE 336 864 256 864
WIRE 512 864 336 864
WIRE 336 880 336 864
WIRE 2576 896 2576 704
WIRE 2000 928 2000 880
FLAG -16 80 0
FLAG 96 80 0
FLAG 208 80 0
FLAG -16 0 V+
FLAG 96 0 V-
FLAG 208 0 Vref
FLAG 96 944 0
FLAG 336 960 0
FLAG 256 864 In+
FLAG 80 496 0
FLAG 336 512 0
FLAG 1744 48 Vref/2
FLAG 784 400 A-
FLAG 784 848 A+
FLAG 256 416 In-
FLAG 1056 608 Vref/2
FLAG 1728 608 0
FLAG 1728 768 0
FLAG 1664 208 0
FLAG 1664 -48 Vref
FLAG 1136 -48 V-
FLAG 1456 -32 V+
FLAG 1776 544 Out+
IOPIN 1776 544 Out
FLAG 1776 704 Out-
IOPIN 1776 704 Out
FLAG 1456 192 Vc+
FLAG 1136 192 Vc-
FLAG 544 368 Vc+
FLAG 544 816 Vc+
FLAG 544 432 Vc-
FLAG 544 880 Vc-
FLAG 1216 544 Vc+
FLAG 1216 704 Vc-
FLAG 2112 768 0
FLAG 2000 928 0
FLAG 2000 640 CLOCK
FLAG 2112 608 0
FLAG 2528 592 0
FLAG 2576 896 0
FLAG 2528 752 0
FLAG 2384 544 Cs+
FLAG 2384 704 Cs-
FLAG 1936 608 0
FLAG 1936 768 0
FLAG 2384 608 0
FLAG 2384 768 0
FLAG 2336 448 0
SYMBOL voltage -16 -16 R0
WINDOW 123 0 0 Left 0
WINDOW 39 0 0 Left 0
SYMATTR InstName V1
SYMATTR Value 5
SYMBOL voltage 96 -16 R0
WINDOW 123 0 0 Left 0
WINDOW 39 0 0 Left 0
SYMATTR InstName V2
SYMATTR Value -5
SYMBOL voltage 208 -16 R0
WINDOW 123 0 0 Left 0
WINDOW 39 0 0 Left 0
SYMATTR InstName V3
SYMATTR Value 4
SYMBOL Misc\\signal 96 848 R0
WINDOW 123 0 0 Left 0
WINDOW 39 0 0 Left 0
WINDOW 3 -79 139 Left 2
SYMATTR Value SINE(0 4 250K 5u)
SYMATTR InstName V4
SYMBOL res 320 864 R0
SYMATTR InstName R1
SYMATTR Value 10m
SYMBOL res 800 832 M90
WINDOW 0 0 56 VBottom 2
WINDOW 3 32 56 VTop 2
SYMATTR InstName R2
SYMATTR Value 2k
SYMBOL Misc\\signal 80 400 R0
WINDOW 123 0 0 Left 0
WINDOW 39 0 0 Left 0
WINDOW 3 -130 144 Left 2
SYMATTR Value SINE(0 4 250K 5u 0 180)
SYMATTR InstName V5
SYMBOL res 656 736 R90
WINDOW 0 0 56 VBottom 2
WINDOW 3 32 56 VTop 2
SYMATTR InstName R3
SYMATTR Value 10k
SYMBOL cap 624 624 R90
WINDOW 0 0 32 VBottom 2
WINDOW 3 32 32 VTop 2
SYMATTR InstName C1
SYMATTR Value 5p
SYMBOL res 320 416 R0
SYMATTR InstName R4
SYMATTR Value 10m
SYMBOL res 800 384 M90
WINDOW 0 0 56 VBottom 2
WINDOW 3 32 56 VTop 2
SYMATTR InstName R5
SYMATTR Value 2k
SYMBOL res 656 288 R90
WINDOW 0 0 56 VBottom 2
WINDOW 3 32 56 VTop 2
SYMATTR InstName R6
SYMATTR Value 10k
SYMBOL cap 624 176 R90
WINDOW 0 0 32 VBottom 2
WINDOW 3 32 32 VTop 2
SYMATTR InstName C2
SYMATTR Value 5p
SYMBOL res 1344 384 R90
WINDOW 0 0 56 VBottom 2
WINDOW 3 32 56 VTop 2
SYMATTR InstName R7
SYMATTR Value 1k
SYMBOL OpAmps\\LT1994 1248 624 R0
SYMATTR InstName U3
SYMBOL res 1296 832 R90
WINDOW 0 0 56 VBottom 2
WINDOW 3 32 56 VTop 2
SYMATTR InstName R9
SYMATTR Value 1k
SYMBOL res 1648 528 R90
WINDOW 0 0 56 VBottom 2
WINDOW 3 32 56 VTop 2
SYMATTR InstName R8
SYMATTR Value 49.9
SYMBOL res 1648 688 R90
WINDOW 0 0 56 VBottom 2
WINDOW 3 32 56 VTop 2
SYMATTR InstName R10
SYMATTR Value 49.9
SYMBOL cap 1712 544 R0
SYMATTR InstName C3
SYMATTR Value 3.3n
SYMBOL cap 1712 704 R0
SYMATTR InstName C4
SYMATTR Value 3.3n
SYMBOL cap 2400 608 R180
WINDOW 0 24 56 Left 2
WINDOW 3 24 8 Left 2
SYMATTR InstName C5
SYMATTR Value 31p
SYMBOL cap 2400 768 R180
WINDOW 0 24 56 Left 2
WINDOW 3 24 8 Left 2
SYMATTR InstName C6
SYMATTR Value 31p
SYMBOL OpAmps\\ADA4510 544 784 R0
SYMATTR InstName U1
SYMBOL OpAmps\\ADA4510 544 336 R0
SYMATTR InstName U2
SYMBOL res 1648 64 R0
SYMATTR InstName R11
SYMATTR Value 2k
SYMBOL res 1648 -64 R0
SYMATTR InstName R12
SYMATTR Value 2k
SYMBOL npn 1392 64 R0
SYMATTR InstName Q1
SYMATTR Value 2N4401
SYMBOL pnp 1072 64 R0
SYMATTR InstName Q2
SYMATTR Value 2N4403
SYMBOL res 1456 0 R90
WINDOW 0 0 56 VBottom 2
WINDOW 3 32 56 VTop 2
SYMATTR InstName R13
SYMATTR Value 1k
SYMBOL res 1120 32 M270
WINDOW 0 32 56 VTop 2
WINDOW 3 0 56 VBottom 2
SYMATTR InstName R14
SYMATTR Value 1k
SYMBOL sw 2144 704 M270
SYMATTR InstName S1
SYMBOL voltage 2000 784 R0
WINDOW 123 0 0 Left 0
WINDOW 39 0 0 Left 0
SYMATTR InstName V6
SYMATTR Value PULSE(0 1 0 2n 2n 300n 1u 20)
SYMBOL sw 2144 544 M270
SYMATTR InstName S2
SYMBOL res 2304 528 R90
WINDOW 0 0 56 VBottom 2
WINDOW 3 32 56 VTop 2
SYMATTR InstName R15
SYMATTR Value 0
SYMBOL res 2304 688 R90
WINDOW 0 0 56 VBottom 2
WINDOW 3 32 56 VTop 2
SYMATTR InstName R16
SYMATTR Value 0
SYMBOL sw 2560 544 M270
SYMATTR InstName S3
SYMBOL sw 2560 704 M270
SYMATTR InstName S4
SYMBOL cap 1920 544 R0
SYMATTR InstName C7
SYMATTR Value 2p
SYMBOL cap 1920 704 R0
SYMATTR InstName C8
SYMATTR Value 2p
SYMBOL Digital\\inv 2336 368 R0
SYMATTR InstName A1
TEXT -120 712 Left 2 !.tran 0 16u 5u uic
TEXT 968 336 Left 2 ;Gain = R7/R5
TEXT 2312 336 Right 2 ;ADC input
TEXT 2000 992 Left 2 !.model SW SW(Ron=200 Roff=1G Vt=.5 Vh=-.4
TEXT 1560 1136 Left 2 ;Clear between samples is a better test for the design of the driving circuit
